* 4 Switch Buck-Boost Converter
* GND, Vin, and Load as global net labels
* Note: Replace Rg values with gate resistances for real MOSFETs

.subckt mosfet_sw M Drain Gate Source
MN1 Drain Gate Source GND N-channel
.model N-channel NMOS Vto=2.5 Kp=50u Lambda=0.01
.ends

Vin N001 0 DC 15
XQ1 N002 N003 N001 mosfet_sw
Rg1 N003 0 10
XQ2 N002 0 N001 mosfet_sw
Rg2 0 0 10
XQ3 N004 N005 0 mosfet_sw
Rg3 N005 0 10
XQ4 N004 0 0 mosfet_sw
Rg4 0 0 10
L1 N002 N004 100u
C1 N004 0 100u

RLoad N004 0 10

.tran 0 5m 0 10u
.end
